util/nrt_diff/test/outputIIDM.xml
<?xml version="1.0" encoding="ISO-8859-1" standalone="no"?>
<network xmlns="http://www.itesla_project.eu/schema/iidm/1_0" xmlns:as="http://www.itesla_project.eu/schema/iidm/ext/active-season/1_0" xmlns:bbsp="http://www.itesla_project.eu/schema/iidm/ext/busbarsectionposition/1_0" xmlns:clps="http://www.itesla_project.eu/schema/iidm/ext/current-limits-per-season/1_0" xmlns:cp="http://www.itesla_project.eu/schema/iidm/ext/connectable_position/1_0" xmlns:gapc="http://www.itesla_project.eu/schema/iidm/ext/generator_active_power_control/1_0" xmlns:gec="http://www.itesla_project.eu/schema/iidm/ext/generator_entsoe_category/1_0" xmlns:gs="http://www.itesla_project.eu/schema/iidm/ext/generator_startup/1_0" xmlns:hapc="http://www.itesla_project.eu/schema/iidm/ext/hvdc_angle_droop_active_power_control/1_0" xmlns:hopr="http://www.itesla_project.eu/schema/iidm/ext/hvdc_operator_active_power_range/1_0" xmlns:ld="http://www.itesla_project.eu/schema/iidm/ext/load_detail/1_0" xmlns:sa="http://www.itesla_project.eu/schema/iidm/ext/standby_automaton/1_0" id="testCSPR" caseDate="2017-07-25T09:39:00.000+01:00" forecastDistance="0" sourceFormat="NF">
  <substation id="FF1_site" name="undefined" country="FR" tso="RTE">
    <property name="paysCvg" value="FRANCE"/>
    <property name="regionCvg" value="LILLE"/>
    <voltageLevel id="FF1" nominalV="380" topologyKind="BUS_BREAKER">
      <property name="siteInit" value="undefined"/>
      <busBreakerTopology>
        <bus id="FF11" v="402.95782896527163" angle="-3.4088787975276551"/>
      </busBreakerTopology>
      <shunt id="MCS_TEST" bPerSection="0.00069252075627446175" maximumSectionCount="1" currentSectionCount="0" connectableBus="FF11" q="-0">
        <property name="qMax" value="100"/>
      </shunt>
      <staticVarCompensator id="CSPR_TEST" bMin="-0.0010387811344116926" bMax="0.0010387811344116926" voltageSetPoint="422" reactivePowerSetPoint="0" regulationMode="VOLTAGE" bus="FF11" connectableBus="FF11" p="0.010635147134216021" q="-59.730449910320417"/>
    </voltageLevel>
  </substation>
  <substation id="FF2_site" name="undefined" country="FR" tso="RTE">
    <property name="paysCvg" value="FRANCE"/>
    <property name="regionCvg" value="LILLE"/>
    <voltageLevel id="FF2" nominalV="380" lowVoltageLimit="0" topologyKind="BUS_BREAKER">
      <property name="siteInit" value="undefined"/>
      <busBreakerTopology>
        <bus id="FF21" v="390.69424251097558" angle="-6.8885967043458267"/>
      </busBreakerTopology>
      <load id="FF2_L" loadType="UNDEFINED" p0="1000" q0="300" bus="FF21" connectableBus="FF21" p="1000.5482616573896" q="300.32904717168731"/>
    </voltageLevel>
  </substation>
  <substation id="FSLACK1_site" name="undefined" country="FR" tso="RTE">
    <property name="paysCvg" value="FRANCE"/>
    <property name="regionCvg" value="LILLE"/>
    <voltageLevel id="FSLACK1" nominalV="380" topologyKind="BUS_BREAKER">
      <property name="siteInit" value="undefined"/>
      <busBreakerTopology>
        <bus id="FSLACK11" v="415.13405017368996" angle="-0.10317707699114524"/>
      </busBreakerTopology>
      <generator id="BVIL7T 1" energySource="HYDRO" minP="300" maxP="2000" voltageRegulatorOn="true" targetP="1000" targetQ="0" targetV="415.0001220703125" bus="FSLACK11" connectableBus="FSLACK11" p="-1021.6120145505693" q="-379.72416716322755">
        <property name="genreCvg" value="POMPAGE"/>
        <reactiveCapabilityCurve>
          <point p="300" minQ="-9998" maxQ="9999"/>
          <point p="2000" minQ="-9998" maxQ="9999"/>
        </reactiveCapabilityCurve>
      </generator>
    </voltageLevel>
  </substation>
  <line id="FF1 FF2 1" r="1.5000001192092896" x="10" g1="0" b1="1.9999999949504854e-06" g2="0" b2="1.9999999949504854e-06" voltageLevelId1="FF1" bus1="FF11" connectableBus1="FF11" voltageLevelId2="FF2" bus2="FF21" connectableBus2="FF21" p1="1011.2705165651438" q1="371.18072523122453" p2="-1000.5482589871017" q2="-300.32904772965287">
    <currentLimits1 permanentLimit="2000.0006103515625"/>
    <currentLimits2 permanentLimit="2000.0006103515625"/>
  </line>
  <line id="FSLACK11 FF11 1" r="1.5000001192092896" x="10" g1="0" b1="1.9999999949504854e-06" g2="0" b2="1.9999999949504854e-06" voltageLevelId1="FSLACK1" bus1="FSLACK11" connectableBus1="FSLACK11" voltageLevelId2="FF1" bus2="FF11" connectableBus2="FF11" p1="1021.6120145505693" q1="379.72416716322874" p2="-1011.2705165651441" q2="-311.45027532090126">
    <currentLimits1 permanentLimit="2000.0006103515625"/>
    <currentLimits2 permanentLimit="2000.0006103515625"/>
  </line>
  <extension id="BVIL7T 1">
    <gapc:generatorActivePowerControl participate="true" droop="4"/>
  </extension>
  <extension id="CSPR_TEST">
    <sa:standbyAutomaton b0="0.0001" standby="true" lowVoltageSetPoint="401" highVoltageSetPoint="415" lowVoltageThreshold="380" highVoltageThreshold="400.25999999999999"/>
  </extension>
</network>
